*SPEF "IEEE 1481-1998"
*DESIGN "dataPath"
*DATE "Wed Sep  7 23:37:28 2016"
*VENDOR "Cadence Design Systems, Inc."
*PROGRAM "Encounter"
*VERSION "13.13-s017_1"
*DESIGN_FLOW "COUPLING C" "PIN_CAP NONE" "NAME_SCOPE LOCAL"
*DIVIDER /
*DELIMITER :
*BUS_DELIMITER []
*T_UNIT 1 NS
*C_UNIT 1 PF
*R_UNIT 1 OHM
*L_UNIT 1 HENRY

// MMMC spef file for corner 'standard'

*NAME_MAP

*1 FU/PC/n100
*2 FU/PC/n101
*3 FU/PC/n102
*4 FU/PC/n103
*5 FU/PC/n104
*6 FU/PC/n105
*7 FU/PC/n106
*8 FU/PC/n107
*9 FU/PC/n108
*10 FU/PC/n109
*11 FU/PC/n110
*12 FU/PC/n111
*13 FU/PC/n112
*14 FU/PC/n113
*15 FU/PC/n114
*16 FU/PC/n115
*17 FU/PC/n116
*18 FU/PC/n117
*19 FU/PC/n118
*20 FU/PC/n119
*21 FU/PC/n120
*22 FU/PC/n121
*23 FU/PC/n122
*24 FU/PC/n123
*25 FU/PC/n124
*26 FU/PC/n125
*27 FU/PC/n126
*28 FU/PC/n127
*29 FU/PC/n128
*30 FU/PC/n129
*31 FU/PC/n130
*32 FU/PC/n131
*33 FU/PC/n193
*34 FU/PC/n194
*35 FU/PC/n195
*36 FU/PC/n196
*37 FU/PC/n34
*38 FU/PC/n35
*39 FU/PC/n36
*40 FU/PC/n37
*41 FU/PC/n38
*42 FU/PC/n39
*43 FU/PC/n40
*44 FU/PC/n41
*45 FU/PC/n42
*46 FU/PC/n43
*47 FU/PC/n44
*48 FU/PC/n45
*49 FU/PC/n46
*50 FU/PC/n47
*51 FU/PC/n48
*52 FU/PC/n49
*53 FU/PC/n50
*54 FU/PC/n51
*55 FU/PC/n52
*56 FU/PC/n53
*57 FU/PC/n54
*58 FU/PC/n55
*59 FU/PC/n56
*60 FU/PC/n57
*61 FU/PC/n58
*62 FU/PC/n59
*63 FU/PC/n60
*64 FU/PC/n61
*65 FU/PC/n62
*66 FU/PC/n63
*67 FU/PC/n64
*68 FU/PC/n65
*69 FU/PC/n66
*70 FU/PC/n67
*71 FU/PC/n68
*72 FU/PC/n69
*73 FU/PC/n70
*74 FU/PC/n71
*75 FU/PC/n72
*76 FU/PC/n73
*77 FU/PC/n74
*78 FU/PC/n75
*79 FU/PC/n76
*80 FU/PC/n77
*81 FU/PC/n78
*82 FU/PC/n79
*83 FU/PC/n80
*84 FU/PC/n81
*85 FU/PC/n82
*86 FU/PC/n83
*87 FU/PC/n84
*88 FU/PC/n85
*89 FU/PC/n86
*90 FU/PC/n87
*91 FU/PC/n88
*92 FU/PC/n89
*93 FU/PC/n90
*94 FU/PC/n91
*95 FU/PC/n92
*96 FU/PC/n93
*97 FU/PC/n94
*98 FU/PC/n95
*99 FU/PC/n96
*100 FU/PC/n97
*101 FU/PC/n98
*102 FU/PC/n99
*103 FU/IR/n100
*104 FU/IR/n101
*105 FU/IR/n102
*106 FU/IR/n103
*107 FU/IR/n104
*108 FU/IR/n105
*109 FU/IR/n106
*110 FU/IR/n107
*111 FU/IR/n108
*112 FU/IR/n109
*113 FU/IR/n110
*114 FU/IR/n111
*115 FU/IR/n112
*116 FU/IR/n113
*117 FU/IR/n114
*118 FU/IR/n115
*119 FU/IR/n116
*120 FU/IR/n117
*121 FU/IR/n118
*122 FU/IR/n119
*123 FU/IR/n120
*124 FU/IR/n121
*125 FU/IR/n122
*126 FU/IR/n123
*127 FU/IR/n124
*128 FU/IR/n125
*129 FU/IR/n126
*130 FU/IR/n127
*131 FU/IR/n128
*132 FU/IR/n129
*133 FU/IR/n188
*134 FU/IR/n189
*135 FU/IR/n190
*136 FU/IR/n191
*137 FU/IR/n31
*138 FU/IR/n32
*139 FU/IR/n33
*140 FU/IR/n34
*141 FU/IR/n35
*142 FU/IR/n37
*143 FU/IR/n38
*144 FU/IR/n39
*145 FU/IR/n40
*146 FU/IR/n41
*147 FU/IR/n42
*148 FU/IR/n43
*149 FU/IR/n44
*150 FU/IR/n45
*151 FU/IR/n46
*152 FU/IR/n47
*153 FU/IR/n48
*154 FU/IR/n49
*155 FU/IR/n50
*156 FU/IR/n51
*157 FU/IR/n52
*158 FU/IR/n53
*159 FU/IR/n54
*160 FU/IR/n55
*161 FU/IR/n56
*162 FU/IR/n57
*163 FU/IR/n58
*164 FU/IR/n59
*165 FU/IR/n60
*166 FU/IR/n61
*167 FU/IR/n62
*168 FU/IR/n63
*169 FU/IR/n64
*170 FU/IR/n65
*171 FU/IR/n66
*172 FU/IR/n67
*173 FU/IR/n68
*174 FU/IR/n69
*175 FU/IR/n70
*176 FU/IR/n71
*177 FU/IR/n72
*178 FU/IR/n73
*179 FU/IR/n74
*180 FU/IR/n75
*181 FU/IR/n76
*182 FU/IR/n77
*183 FU/IR/n78
*184 FU/IR/n79
*185 FU/IR/n80
*186 FU/IR/n81
*187 FU/IR/n82
*188 FU/IR/n83
*189 FU/IR/n84
*190 FU/IR/n85
*191 FU/IR/n86
*192 FU/IR/n87
*193 FU/IR/n88
*194 FU/IR/n89
*195 FU/IR/n90
*196 FU/IR/n91
*197 FU/IR/n92
*198 FU/IR/n93
*199 FU/IR/n94
*200 FU/IR/n95
*201 FU/IR/n96
*202 FU/IR/n97
*203 FU/IR/n98
*204 FU/IR/n99
*205 FU/A/add_1_root_add_24_2/carry\[10\]
*206 FU/A/add_1_root_add_24_2/carry\[11\]
*207 FU/A/add_1_root_add_24_2/carry\[12\]
*208 FU/A/add_1_root_add_24_2/carry\[13\]
*209 FU/A/add_1_root_add_24_2/carry\[14\]
*210 FU/A/add_1_root_add_24_2/carry\[15\]
*211 FU/A/add_1_root_add_24_2/carry\[16\]
*212 FU/A/add_1_root_add_24_2/carry\[17\]
*213 FU/A/add_1_root_add_24_2/carry\[18\]
*214 FU/A/add_1_root_add_24_2/carry\[19\]
*215 FU/A/add_1_root_add_24_2/carry\[1\]
*216 FU/A/add_1_root_add_24_2/carry\[20\]
*217 FU/A/add_1_root_add_24_2/carry\[21\]
*218 FU/A/add_1_root_add_24_2/carry\[22\]
*219 FU/A/add_1_root_add_24_2/carry\[23\]
*220 FU/A/add_1_root_add_24_2/carry\[24\]
*221 FU/A/add_1_root_add_24_2/carry\[25\]
*222 FU/A/add_1_root_add_24_2/carry\[26\]
*223 FU/A/add_1_root_add_24_2/carry\[27\]
*224 FU/A/add_1_root_add_24_2/carry\[28\]
*225 FU/A/add_1_root_add_24_2/carry\[29\]
*226 FU/A/add_1_root_add_24_2/carry\[2\]
*227 FU/A/add_1_root_add_24_2/carry\[30\]
*228 FU/A/add_1_root_add_24_2/carry\[31\]
*229 FU/A/add_1_root_add_24_2/carry\[3\]
*230 FU/A/add_1_root_add_24_2/carry\[4\]
*231 FU/A/add_1_root_add_24_2/carry\[5\]
*232 FU/A/add_1_root_add_24_2/carry\[6\]
*233 FU/A/add_1_root_add_24_2/carry\[7\]
*234 FU/A/add_1_root_add_24_2/carry\[8\]
*235 FU/A/add_1_root_add_24_2/carry\[9\]
*236 FU/fromAdderToMux[0]
*237 FU/fromAdderToMux[10]
*238 FU/fromAdderToMux[11]
*239 FU/fromAdderToMux[12]
*240 FU/fromAdderToMux[13]
*241 FU/fromAdderToMux[14]
*242 FU/fromAdderToMux[15]
*243 FU/fromAdderToMux[16]
*244 FU/fromAdderToMux[17]
*245 FU/fromAdderToMux[18]
*246 FU/fromAdderToMux[19]
*247 FU/fromAdderToMux[1]
*248 FU/fromAdderToMux[20]
*249 FU/fromAdderToMux[21]
*250 FU/fromAdderToMux[22]
*251 FU/fromAdderToMux[23]
*252 FU/fromAdderToMux[24]
*253 FU/fromAdderToMux[25]
*254 FU/fromAdderToMux[26]
*255 FU/fromAdderToMux[27]
*256 FU/fromAdderToMux[28]
*257 FU/fromAdderToMux[29]
*258 FU/fromAdderToMux[2]
*259 FU/fromAdderToMux[30]
*260 FU/fromAdderToMux[31]
*261 FU/fromAdderToMux[3]
*262 FU/fromAdderToMux[4]
*263 FU/fromAdderToMux[5]
*264 FU/fromAdderToMux[6]
*265 FU/fromAdderToMux[7]
*266 FU/fromAdderToMux[8]
*267 FU/fromAdderToMux[9]
*268 FU/fromMuxToPc[0]
*269 FU/fromMuxToPc[10]
*270 FU/fromMuxToPc[11]
*271 FU/fromMuxToPc[12]
*272 FU/fromMuxToPc[13]
*273 FU/fromMuxToPc[14]
*274 FU/fromMuxToPc[15]
*275 FU/fromMuxToPc[16]
*276 FU/fromMuxToPc[17]
*277 FU/fromMuxToPc[18]
*278 FU/fromMuxToPc[19]
*279 FU/fromMuxToPc[1]
*280 FU/fromMuxToPc[20]
*281 FU/fromMuxToPc[21]
*282 FU/fromMuxToPc[22]
*283 FU/fromMuxToPc[23]
*284 FU/fromMuxToPc[24]
*285 FU/fromMuxToPc[25]
*286 FU/fromMuxToPc[26]
*287 FU/fromMuxToPc[27]
*288 FU/fromMuxToPc[28]
*289 FU/fromMuxToPc[29]
*290 FU/fromMuxToPc[2]
*291 FU/fromMuxToPc[30]
*292 FU/fromMuxToPc[31]
*293 FU/fromMuxToPc[3]
*294 FU/fromMuxToPc[4]
*295 FU/fromMuxToPc[5]
*296 FU/fromMuxToPc[6]
*297 FU/fromMuxToPc[7]
*298 FU/fromMuxToPc[8]
*299 FU/fromMuxToPc[9]
*300 FU/n3
*301 EU/CU_EX/n14
*302 EU/CU_EX/n15
*303 EU/CU_EX/n17
*304 EU/CU_EX/n18
*305 EU/CU_EX/n19
*306 EU/CU_EX/n20
*307 EU/CU_EX/n21
*308 EU/CU_EX/n22
*309 EU/CU_EX/n23
*310 EU/CU_EX/n24
*311 EU/CU_EX/n25
*312 EU/CU_EX/n26
*313 EU/CU_EX/n28
*314 EU/CU_EX/n29
*315 EU/CU_EX/n30
*316 EU/CU_EX/n31
*317 EU/CU_EX/n32
*318 EU/CU_EX/n33
*319 EU/CU_EX/n34
*320 EU/CU_EX/n35
*321 EU/CU_EX/n36
*322 EU/CU_EX/n37
*323 EU/CU_EX/n38
*324 EU/CU_EX/n39
*325 EU/CU_EX/n40
*326 EU/CU_EX/n76
*327 EU/COMP/r71/n1
*328 EU/COMP/r71/n10
*329 EU/COMP/r71/n100
*330 EU/COMP/r71/n101
*331 EU/COMP/r71/n102
*332 EU/COMP/r71/n103
*333 EU/COMP/r71/n104
*334 EU/COMP/r71/n105
*335 EU/COMP/r71/n106
*336 EU/COMP/r71/n107
*337 EU/COMP/r71/n108
*338 EU/COMP/r71/n109
*339 EU/COMP/r71/n11
*340 EU/COMP/r71/n110
*341 EU/COMP/r71/n111
*342 EU/COMP/r71/n112
*343 EU/COMP/r71/n113
*344 EU/COMP/r71/n114
*345 EU/COMP/r71/n115
*346 EU/COMP/r71/n116
*347 EU/COMP/r71/n117
*348 EU/COMP/r71/n118
*349 EU/COMP/r71/n119
*350 EU/COMP/r71/n12
*351 EU/COMP/r71/n120
*352 EU/COMP/r71/n121
*353 EU/COMP/r71/n122
*354 EU/COMP/r71/n123
*355 EU/COMP/r71/n124
*356 EU/COMP/r71/n125
*357 EU/COMP/r71/n126
*358 EU/COMP/r71/n127
*359 EU/COMP/r71/n128
*360 EU/COMP/r71/n129
*361 EU/COMP/r71/n13
*362 EU/COMP/r71/n130
*363 EU/COMP/r71/n131
*364 EU/COMP/r71/n132
*365 EU/COMP/r71/n133
*366 EU/COMP/r71/n134
*367 EU/COMP/r71/n135
*368 EU/COMP/r71/n136
*369 EU/COMP/r71/n137
*370 EU/COMP/r71/n138
*371 EU/COMP/r71/n139
*372 EU/COMP/r71/n14
*373 EU/COMP/r71/n140
*374 EU/COMP/r71/n141
*375 EU/COMP/r71/n142
*376 EU/COMP/r71/n143
*377 EU/COMP/r71/n144
*378 EU/COMP/r71/n145
*379 EU/COMP/r71/n146
*380 EU/COMP/r71/n147
*381 EU/COMP/r71/n148
*382 EU/COMP/r71/n149
*383 EU/COMP/r71/n15
*384 EU/COMP/r71/n150
*385 EU/COMP/r71/n151
*386 EU/COMP/r71/n152
*387 EU/COMP/r71/n153
*388 EU/COMP/r71/n154
*389 EU/COMP/r71/n155
*390 EU/COMP/r71/n156
*391 EU/COMP/r71/n157
*392 EU/COMP/r71/n158
*393 EU/COMP/r71/n159
*394 EU/COMP/r71/n16
*395 EU/COMP/r71/n160
*396 EU/COMP/r71/n161
*397 EU/COMP/r71/n162
*398 EU/COMP/r71/n163
*399 EU/COMP/r71/n164
*400 EU/COMP/r71/n165
*401 EU/COMP/r71/n166
*402 EU/COMP/r71/n167
*403 EU/COMP/r71/n168
*404 EU/COMP/r71/n169
*405 EU/COMP/r71/n17
*406 EU/COMP/r71/n170
*407 EU/COMP/r71/n171
*408 EU/COMP/r71/n172
*409 EU/COMP/r71/n173
*410 EU/COMP/r71/n174
*411 EU/COMP/r71/n175
*412 EU/COMP/r71/n176
*413 EU/COMP/r71/n177
*414 EU/COMP/r71/n178
*415 EU/COMP/r71/n179
*416 EU/COMP/r71/n18
*417 EU/COMP/r71/n180
*418 EU/COMP/r71/n181
*419 EU/COMP/r71/n182
*420 EU/COMP/r71/n183
*421 EU/COMP/r71/n184
*422 EU/COMP/r71/n185
*423 EU/COMP/r71/n186
*424 EU/COMP/r71/n187
*425 EU/COMP/r71/n188
*426 EU/COMP/r71/n189
*427 EU/COMP/r71/n19
*428 EU/COMP/r71/n190
*429 EU/COMP/r71/n191
*430 EU/COMP/r71/n192
*431 EU/COMP/r71/n193
*432 EU/COMP/r71/n194
*433 EU/COMP/r71/n195
*434 EU/COMP/r71/n196
*435 EU/COMP/r71/n197
*436 EU/COMP/r71/n198
*437 EU/COMP/r71/n199
*438 EU/COMP/r71/n2
*439 EU/COMP/r71/n20
*440 EU/COMP/r71/n200
*441 EU/COMP/r71/n201
*442 EU/COMP/r71/n202
*443 EU/COMP/r71/n21
*444 EU/COMP/r71/n22
*445 EU/COMP/r71/n23
*446 EU/COMP/r71/n24
*447 EU/COMP/r71/n25
*448 EU/COMP/r71/n26
*449 EU/COMP/r71/n27
*450 EU/COMP/r71/n28
*451 EU/COMP/r71/n29
*452 EU/COMP/r71/n3
*453 EU/COMP/r71/n30
*454 EU/COMP/r71/n31
*455 EU/COMP/r71/n32
*456 EU/COMP/r71/n33
*457 EU/COMP/r71/n34
*458 EU/COMP/r71/n35
*459 EU/COMP/r71/n36
*460 EU/COMP/r71/n37
*461 EU/COMP/r71/n38
*462 EU/COMP/r71/n39
*463 EU/COMP/r71/n4
*464 EU/COMP/r71/n40
*465 EU/COMP/r71/n41
*466 EU/COMP/r71/n42
*467 EU/COMP/r71/n43
*468 EU/COMP/r71/n44
*469 EU/COMP/r71/n45
*470 EU/COMP/r71/n46
*471 EU/COMP/r71/n47
*472 EU/COMP/r71/n48
*473 EU/COMP/r71/n49
*474 EU/COMP/r71/n5
*475 EU/COMP/r71/n50
*476 EU/COMP/r71/n51
*477 EU/COMP/r71/n52
*478 EU/COMP/r71/n53
*479 EU/COMP/r71/n54
*480 EU/COMP/r71/n55
*481 EU/COMP/r71/n56
*482 EU/COMP/r71/n57
*483 EU/COMP/r71/n58
*484 EU/COMP/r71/n59
*485 EU/COMP/r71/n6
*486 EU/COMP/r71/n60
*487 EU/COMP/r71/n61
*488 EU/COMP/r71/n62
*489 EU/COMP/r71/n63
*490 EU/COMP/r71/n64
*491 EU/COMP/r71/n65
*492 EU/COMP/r71/n66
*493 EU/COMP/r71/n67
*494 EU/COMP/r71/n68
*495 EU/COMP/r71/n69
*496 EU/COMP/r71/n7
*497 EU/COMP/r71/n70
*498 EU/COMP/r71/n71
*499 EU/COMP/r71/n72
*500 EU/COMP/r71/n73
*501 EU/COMP/r71/n74
*502 EU/COMP/r71/n75
*503 EU/COMP/r71/n76
*504 EU/COMP/r71/n77
*505 EU/COMP/r71/n78
*506 EU/COMP/r71/n79
*507 EU/COMP/r71/n8
*508 EU/COMP/r71/n80
*509 EU/COMP/r71/n81
*510 EU/COMP/r71/n82
*511 EU/COMP/r71/n83
*512 EU/COMP/r71/n84
*513 EU/COMP/r71/n85
*514 EU/COMP/r71/n86
*515 EU/COMP/r71/n87
*516 EU/COMP/r71/n88
*517 EU/COMP/r71/n89
*518 EU/COMP/r71/n9
*519 EU/COMP/r71/n90
*520 EU/COMP/r71/n91
*521 EU/COMP/r71/n92
*522 EU/COMP/r71/n93
*523 EU/COMP/r71/n94
*524 EU/COMP/r71/n95
*525 EU/COMP/r71/n96
*526 EU/COMP/r71/n97
*527 EU/COMP/r71/n98
*528 EU/COMP/r71/n99
*529 EU/COMP/r70/n1
*530 EU/COMP/r70/n10
*531 EU/COMP/r70/n11
*532 EU/COMP/r70/n12
*533 EU/COMP/r70/n13
*534 EU/COMP/r70/n14
*535 EU/COMP/r70/n15
*536 EU/COMP/r70/n16
*537 EU/COMP/r70/n17
*538 EU/COMP/r70/n18
*539 EU/COMP/r70/n19
*540 EU/COMP/r70/n2
*541 EU/COMP/r70/n20
*542 EU/COMP/r70/n21
*543 EU/COMP/r70/n22
*544 EU/COMP/r70/n23
*545 EU/COMP/r70/n24
*546 EU/COMP/r70/n25
*547 EU/COMP/r70/n26
*548 EU/COMP/r70/n27
*549 EU/COMP/r70/n28
*550 EU/COMP/r70/n29
*551 EU/COMP/r70/n3
*552 EU/COMP/r70/n30
*553 EU/COMP/r70/n31
*554 EU/COMP/r70/n32
*555 EU/COMP/r70/n33
*556 EU/COMP/r70/n34
*557 EU/COMP/r70/n35
*558 EU/COMP/r70/n36
*559 EU/COMP/r70/n37
*560 EU/COMP/r70/n38
*561 EU/COMP/r70/n39
*562 EU/COMP/r70/n4
*563 EU/COMP/r70/n40
*564 EU/COMP/r70/n41
*565 EU/COMP/r70/n42
*566 EU/COMP/r70/n43
*567 EU/COMP/r70/n44
*568 EU/COMP/r70/n45
*569 EU/COMP/r70/n46
*570 EU/COMP/r70/n47
*571 EU/COMP/r70/n5
*572 EU/COMP/r70/n6
*573 EU/COMP/r70/n7
*574 EU/COMP/r70/n8
*575 EU/COMP/r70/n9
*576 EU/COMP/N14
*577 EU/COMP/N19
*578 EU/COMP/N20
*579 EU/COMP/n10
*580 EU/COMP/n11
*581 EU/COMP/n12
*582 EU/COMP/n13
*583 EU/COMP/n14
*584 EU/COMP/n15
*585 EU/COMP/n8
*586 EU/COMP/n9
*587 EU/from_latch_to_comparator_op1[0]
*588 EU/from_latch_to_comparator_op1[10]
*589 EU/from_latch_to_comparator_op1[11]
*590 EU/from_latch_to_comparator_op1[12]
*591 EU/from_latch_to_comparator_op1[13]
*592 EU/from_latch_to_comparator_op1[14]
*593 EU/from_latch_to_comparator_op1[15]
*594 EU/from_latch_to_comparator_op1[16]
*595 EU/from_latch_to_comparator_op1[17]
*596 EU/from_latch_to_comparator_op1[18]
*597 EU/from_latch_to_comparator_op1[19]
*598 EU/from_latch_to_comparator_op1[1]
*599 EU/from_latch_to_comparator_op1[20]
*600 EU/from_latch_to_comparator_op1[21]
*601 EU/from_latch_to_comparator_op1[22]
*602 EU/from_latch_to_comparator_op1[23]
*603 EU/from_latch_to_comparator_op1[24]
*604 EU/from_latch_to_comparator_op1[25]
*605 EU/from_latch_to_comparator_op1[26]
*606 EU/from_latch_to_comparator_op1[27]
*607 EU/from_latch_to_comparator_op1[28]
*608 EU/from_latch_to_comparator_op1[29]
*609 EU/from_latch_to_comparator_op1[2]
*610 EU/from_latch_to_comparator_op1[30]
*611 EU/from_latch_to_comparator_op1[31]
*612 EU/from_latch_to_comparator_op1[3]
*613 EU/from_latch_to_comparator_op1[4]
*614 EU/from_latch_to_comparator_op1[5]
*615 EU/from_latch_to_comparator_op1[6]
*616 EU/from_latch_to_comparator_op1[7]
*617 EU/from_latch_to_comparator_op1[8]
*618 EU/from_latch_to_comparator_op1[9]
*619 EU/from_latch_to_comparator_op2[0]
*620 EU/from_latch_to_comparator_op2[10]
*621 EU/from_latch_to_comparator_op2[11]
*622 EU/from_latch_to_comparator_op2[12]
*623 EU/from_latch_to_comparator_op2[13]
*624 EU/from_latch_to_comparator_op2[14]
*625 EU/from_latch_to_comparator_op2[15]
*626 EU/from_latch_to_comparator_op2[16]
*627 EU/from_latch_to_comparator_op2[17]
*628 EU/from_latch_to_comparator_op2[18]
*629 EU/from_latch_to_comparator_op2[19]
*630 EU/from_latch_to_comparator_op2[1]
*631 EU/from_latch_to_comparator_op2[20]
*632 EU/from_latch_to_comparator_op2[21]
*633 EU/from_latch_to_comparator_op2[22]
*634 EU/from_latch_to_comparator_op2[23]
*635 EU/from_latch_to_comparator_op2[24]
*636 EU/from_latch_to_comparator_op2[25]
*637 EU/from_latch_to_comparator_op2[26]
*638 EU/from_latch_to_comparator_op2[27]
*639 EU/from_latch_to_comparator_op2[28]
*640 EU/from_latch_to_comparator_op2[29]
*641 EU/from_latch_to_comparator_op2[2]
*642 EU/from_latch_to_comparator_op2[30]
*643 EU/from_latch_to_comparator_op2[31]
*644 EU/from_latch_to_comparator_op2[3]
*645 EU/from_latch_to_comparator_op2[4]
*646 EU/from_latch_to_comparator_op2[5]
*647 EU/from_latch_to_comparator_op2[6]
*648 EU/from_latch_to_comparator_op2[7]
*649 EU/from_latch_to_comparator_op2[8]
*650 EU/from_latch_to_comparator_op2[9]
*651 EU/from_latch_to_shifter_op1[0]
*652 EU/from_latch_to_shifter_op1[31]
*653 EU/from_latch_to_shifter_op2[0]
*654 EU/from_latch_to_shifter_op2[3]
*655 EU/from_latch_to_shifter_op2[4]
*656 EU/sel_comparator[0]
*657 EU/sel_comparator[1]
*658 EU/sel_comparator[2]
*659 EU/sel_signal_5_1[1]
*660 EU/sel_signal_5_1[2]
*661 EU/signal_cmd_t2[1]
*662 DU/HU/n1
*663 DU/HU/n10
*664 DU/HU/n11
*665 DU/HU/n12
*666 DU/HU/n13
*667 DU/HU/n2
*668 DU/HU/n3
*669 DU/HU/n4
*670 DU/HU/n5
*671 DU/HU/n6
*672 DU/HU/n7
*673 DU/HU/n8
*674 DU/HU/n9
*675 ID_EX_Rt[0]
*676 ID_EX_Rt[1]
*677 ID_EX_Rt[2]
*678 ID_EX_Rt[3]
*679 ID_EX_Rt[4]
*680 address_data_memory[0]
*681 address_data_memory[10]
*682 address_data_memory[11]
*683 address_data_memory[12]
*684 address_data_memory[13]
*685 address_data_memory[14]
*686 address_data_memory[15]
*687 address_data_memory[16]
*688 address_data_memory[17]
*689 address_data_memory[18]
*690 address_data_memory[19]
*691 address_data_memory[1]
*692 address_data_memory[20]
*693 address_data_memory[21]
*694 address_data_memory[22]
*695 address_data_memory[23]
*696 address_data_memory[24]
*697 address_data_memory[25]
*698 address_data_memory[26]
*699 address_data_memory[27]
*700 address_data_memory[28]
*701 address_data_memory[29]
*702 address_data_memory[2]
*703 address_data_memory[30]
*704 address_data_memory[31]
*705 address_data_memory[3]
*706 address_data_memory[4]
*707 address_data_memory[5]
*708 address_data_memory[6]
*709 address_data_memory[7]
*710 address_data_memory[8]
*711 address_data_memory[9]
*712 clock
*713 from_instruction_memory[0]
*714 from_instruction_memory[10]
*715 from_instruction_memory[11]
*716 from_instruction_memory[12]
*717 from_instruction_memory[13]
*718 from_instruction_memory[14]
*719 from_instruction_memory[15]
*720 from_instruction_memory[16]
*721 from_instruction_memory[17]
*722 from_instruction_memory[18]
*723 from_instruction_memory[19]
*724 from_instruction_memory[1]
*725 from_instruction_memory[20]
*726 from_instruction_memory[21]
*727 from_instruction_memory[22]
*728 from_instruction_memory[23]
*729 from_instruction_memory[24]
*730 from_instruction_memory[25]
*731 from_instruction_memory[26]
*732 from_instruction_memory[27]
*733 from_instruction_memory[28]
*734 from_instruction_memory[29]
*735 from_instruction_memory[2]
*736 from_instruction_memory[30]
*737 from_instruction_memory[31]
*738 from_instruction_memory[3]
*739 from_instruction_memory[4]
*740 from_instruction_memory[5]
*741 from_instruction_memory[6]
*742 from_instruction_memory[7]
*743 from_instruction_memory[8]
*744 from_instruction_memory[9]
*745 func[0]
*746 func[10]
*747 func[1]
*748 func[2]
*749 func[3]
*750 func[4]
*751 func[5]
*752 func[6]
*753 func[7]
*754 func[8]
*755 func[9]
*756 hazard_condition
*757 hazard_detected
*758 instruction[0]
*759 instruction[10]
*760 instruction[11]
*761 instruction[12]
*762 instruction[13]
*763 instruction[14]
*764 instruction[15]
*765 instruction[16]
*766 instruction[17]
*767 instruction[18]
*768 instruction[19]
*769 instruction[1]
*770 instruction[20]
*771 instruction[21]
*772 instruction[22]
*773 instruction[23]
*774 instruction[24]
*775 instruction[25]
*776 instruction[26]
*777 instruction[27]
*778 instruction[28]
*779 instruction[29]
*780 instruction[2]
*781 instruction[30]
*782 instruction[31]
*783 instruction[3]
*784 instruction[4]
*785 instruction[5]
*786 instruction[6]
*787 instruction[7]
*788 instruction[8]
*789 instruction[9]
*790 jump
*791 multi_cycle_operation
*792 pc_to_im[0]
*793 pc_to_im[10]
*794 pc_to_im[11]
*795 pc_to_im[12]
*796 pc_to_im[13]
*797 pc_to_im[14]
*798 pc_to_im[15]
*799 pc_to_im[16]
*800 pc_to_im[17]
*801 pc_to_im[18]
*802 pc_to_im[19]
*803 pc_to_im[1]
*804 pc_to_im[20]
*805 pc_to_im[21]
*806 pc_to_im[22]
*807 pc_to_im[23]
*808 pc_to_im[24]
*809 pc_to_im[25]
*810 pc_to_im[26]
*811 pc_to_im[27]
*812 pc_to_im[28]
*813 pc_to_im[29]
*814 pc_to_im[2]
*815 pc_to_im[30]
*816 pc_to_im[31]
*817 pc_to_im[3]
*818 pc_to_im[4]
*819 pc_to_im[5]
*820 pc_to_im[6]
*821 pc_to_im[7]
*822 pc_to_im[8]
*823 pc_to_im[9]
*824 reset
*825 sel0
*826 sel1
*827 sel2
*828 sel3
*829 sel4
*830 sel_ext
*831 en1
*832 en2
*833 en3
*834 en4
*835 en5
*836 en6
*837 en7
*838 EX_MEM_write
*839 MEM_WB_write
*840 datain[31]
*841 datain[30]
*842 datain[29]
*843 datain[28]
*844 datain[27]
*845 datain[26]
*846 datain[25]
*847 datain[24]
*848 datain[23]
*849 datain[22]
*850 datain[21]
*851 datain[20]
*852 datain[19]
*853 datain[18]
*854 datain[17]
*855 datain[16]
*856 datain[15]
*857 datain[14]
*858 datain[13]
*859 datain[12]
*860 datain[11]
*861 datain[10]
*862 datain[9]
*863 datain[8]
*864 datain[7]
*865 datain[6]
*866 datain[5]
*867 datain[4]
*868 datain[3]
*869 datain[2]
*870 datain[1]
*871 datain[0]
*872 dataout[31]
*873 dataout[30]
*874 dataout[29]
*875 dataout[28]
*876 dataout[27]
*877 dataout[26]
*878 dataout[25]
*879 dataout[24]
*880 dataout[23]
*881 dataout[22]
*882 dataout[21]
*883 dataout[20]
*884 dataout[19]
*885 dataout[18]
*886 dataout[17]
*887 dataout[16]
*888 dataout[15]
*889 dataout[14]
*890 dataout[13]
*891 dataout[12]
*892 dataout[11]
*893 dataout[10]
*894 dataout[9]
*895 dataout[8]
*896 dataout[7]
*897 dataout[6]
*898 dataout[5]
*899 dataout[4]
*900 dataout[3]
*901 dataout[2]
*902 dataout[1]
*903 dataout[0]
*904 debug[31]
*905 debug[30]
*906 debug[29]
*907 debug[28]
*908 debug[27]
*909 debug[26]
*910 debug[25]
*911 debug[24]
*912 debug[23]
*913 debug[22]
*914 debug[21]
*915 debug[20]
*916 debug[19]
*917 debug[18]
*918 debug[17]
*919 debug[16]
*920 debug[15]
*921 debug[14]
*922 debug[13]
*923 debug[12]
*924 debug[11]
*925 debug[10]
*926 debug[9]
*927 debug[8]
*928 debug[7]
*929 debug[6]
*930 debug[5]
*931 debug[4]
*932 debug[3]
*933 debug[2]
*934 debug[1]
*935 debug[0]
*936 EU/CU_EX/U45
*937 EU/CU_EX/U3
*938 EU/CU_EX/U4
*939 EU/CU_EX/U5
*940 EU/CU_EX/U6
*941 EU/CU_EX/U7
*942 EU/CU_EX/U8
*943 EU/CU_EX/U9
*944 EU/CU_EX/U12
*945 EU/CU_EX/U13
*946 EU/CU_EX/U14
*947 EU/CU_EX/U15
*948 EU/CU_EX/U16
*949 EU/CU_EX/U17
*950 EU/CU_EX/U18
*951 EU/CU_EX/U19
*952 EU/CU_EX/U20
*953 EU/CU_EX/U21
*954 EU/CU_EX/U22
*955 EU/CU_EX/U23
*956 EU/CU_EX/U24
*957 EU/CU_EX/U25
*958 EU/CU_EX/U27
*959 EU/CU_EX/U28
*960 EU/CU_EX/U29
*961 EU/CU_EX/U30
*962 EU/CU_EX/U33
*963 EU/CU_EX/U34
*964 EU/CU_EX/U35
*965 EU/CU_EX/U38
*966 EU/CU_EX/U40
*967 EU/CU_EX/U41
*968 EU/CU_EX/U42
*969 EU/CU_EX/U43
*970 EU/SF/C10/M1_0_31_0
*971 EU/SF/U5
*972 EU/SF/U99
*973 EU/COMP/U14
*974 EU/COMP/r71/U24
*975 EU/COMP/r71/U25
*976 EU/COMP/r71/U42
*977 EU/COMP/r71/U1
*978 EU/COMP/r71/U2
*979 EU/COMP/r71/U3
*980 EU/COMP/r71/U4
*981 EU/COMP/r71/U5
*982 EU/COMP/r71/U6
*983 EU/COMP/r71/U7
*984 EU/COMP/r71/U8
*985 EU/COMP/r71/U9
*986 EU/COMP/r71/U10
*987 EU/COMP/r71/U11
*988 EU/COMP/r71/U12
*989 EU/COMP/r71/U13
*990 EU/COMP/r71/U14
*991 EU/COMP/r71/U15
*992 EU/COMP/r71/U16
*993 EU/COMP/r71/U17
*994 EU/COMP/r71/U18
*995 EU/COMP/r71/U19
*996 EU/COMP/r71/U20
*997 EU/COMP/r71/U21
*998 EU/COMP/r71/U22
*999 EU/COMP/r71/U23
*1000 EU/COMP/r71/U26
*1001 EU/COMP/r71/U27
*1002 EU/COMP/r71/U28
*1003 EU/COMP/r71/U29
*1004 EU/COMP/r71/U30
*1005 EU/COMP/r71/U31
*1006 EU/COMP/r71/U32
*1007 EU/COMP/r71/U33
*1008 EU/COMP/r71/U34
*1009 EU/COMP/r71/U35
*1010 EU/COMP/r71/U36
*1011 EU/COMP/r71/U37
*1012 EU/COMP/r71/U38
*1013 EU/COMP/r71/U39
*1014 EU/COMP/r71/U40
*1015 EU/COMP/r71/U41
*1016 EU/COMP/r71/U43
*1017 EU/COMP/r71/U44
*1018 EU/COMP/r71/U45
*1019 EU/COMP/r71/U46
*1020 EU/COMP/r71/U47
*1021 EU/COMP/r71/U48
*1022 EU/COMP/r71/U49
*1023 EU/COMP/r71/U50
*1024 EU/COMP/r71/U51
*1025 EU/COMP/r71/U52
*1026 EU/COMP/r71/U53
*1027 EU/COMP/r71/U54
*1028 EU/COMP/r71/U55
*1029 EU/COMP/r71/U56
*1030 EU/COMP/r71/U57
*1031 EU/COMP/r71/U58
*1032 EU/COMP/r71/U59
*1033 EU/COMP/r71/U60
*1034 EU/COMP/r71/U61
*1035 EU/COMP/r71/U62
*1036 EU/COMP/r71/U63
*1037 EU/COMP/r71/U64
*1038 EU/COMP/r71/U65
*1039 EU/COMP/r71/U66
*1040 EU/COMP/r71/U67
*1041 EU/COMP/r71/U68
*1042 EU/COMP/r71/U69
*1043 EU/COMP/r71/U70
*1044 EU/COMP/r71/U71
*1045 EU/COMP/r71/U72
*1046 EU/COMP/r71/U73
*1047 EU/COMP/r71/U74
*1048 EU/COMP/r71/U75
*1049 EU/COMP/r71/U76
*1050 EU/COMP/r71/U77
*1051 EU/COMP/r71/U78
*1052 EU/COMP/r71/U79
*1053 EU/COMP/r71/U80
*1054 EU/COMP/r71/U81
*1055 EU/COMP/r71/U82
*1056 EU/COMP/r71/U83
*1057 EU/COMP/r71/U84
*1058 EU/COMP/r71/U85
*1059 EU/COMP/r71/U86
*1060 EU/COMP/r71/U87
*1061 EU/COMP/r71/U88
*1062 EU/COMP/r71/U89
*1063 EU/COMP/r71/U90
*1064 EU/COMP/r71/U91
*1065 EU/COMP/r71/U92
*1066 EU/COMP/r71/U93
*1067 EU/COMP/r71/U94
*1068 EU/COMP/r71/U95
*1069 EU/COMP/r71/U96
*1070 EU/COMP/r71/U97
*1071 EU/COMP/r71/U98
*1072 EU/COMP/r71/U99
*1073 EU/COMP/r71/U100
*1074 EU/COMP/r71/U101
*1075 EU/COMP/r71/U102
*1076 EU/COMP/r71/U103
*1077 EU/COMP/r71/U104
*1078 EU/COMP/r71/U105
*1079 EU/COMP/r71/U106
*1080 EU/COMP/r71/U107
*1081 EU/COMP/r71/U108
*1082 EU/COMP/r71/U109
*1083 EU/COMP/r71/U110
*1084 EU/COMP/r71/U111
*1085 EU/COMP/r71/U112
*1086 EU/COMP/r71/U113
*1087 EU/COMP/r71/U114
*1088 EU/COMP/r71/U115
*1089 EU/COMP/r71/U116
*1090 EU/COMP/r71/U117
*1091 EU/COMP/r71/U118
*1092 EU/COMP/r71/U119
*1093 EU/COMP/r71/U120
*1094 EU/COMP/r71/U121
*1095 EU/COMP/r71/U122
*1096 EU/COMP/r71/U123
*1097 EU/COMP/r71/U124
*1098 EU/COMP/r71/U125
*1099 EU/COMP/r71/U126
*1100 EU/COMP/r71/U127
*1101 EU/COMP/r71/U128
*1102 EU/COMP/r71/U129
*1103 EU/COMP/r71/U130
*1104 EU/COMP/r71/U131
*1105 EU/COMP/r71/U132
*1106 EU/COMP/r71/U133
*1107 EU/COMP/r71/U134
*1108 EU/COMP/r71/U135
*1109 EU/COMP/r71/U136
*1110 EU/COMP/r71/U137
*1111 EU/COMP/r71/U138
*1112 EU/COMP/r71/U139
*1113 EU/COMP/r71/U140
*1114 EU/COMP/r71/U141
*1115 EU/COMP/r71/U142
*1116 EU/COMP/r71/U143
*1117 EU/COMP/r71/U144
*1118 EU/COMP/r71/U145
*1119 EU/COMP/r71/U146
*1120 EU/COMP/r71/U147
*1121 EU/COMP/r71/U148
*1122 EU/COMP/r71/U149
*1123 EU/COMP/r71/U150
*1124 EU/COMP/r71/U151
*1125 EU/COMP/r71/U152
*1126 EU/COMP/r71/U153
*1127 EU/COMP/r71/U154
*1128 EU/COMP/r71/U155
*1129 EU/COMP/r71/U156
*1130 EU/COMP/r71/U157
*1131 EU/COMP/r71/U158
*1132 EU/COMP/r71/U159
*1133 EU/COMP/r71/U160
*1134 EU/COMP/r71/U161
*1135 EU/COMP/r71/U162
*1136 EU/COMP/r71/U163
*1137 EU/COMP/r71/U164
*1138 EU/COMP/r71/U165
*1139 EU/COMP/r71/U166
*1140 EU/COMP/r71/U167
*1141 EU/COMP/r71/U168
*1142 EU/COMP/r71/U169
*1143 EU/COMP/r71/U170
*1144 EU/COMP/r71/U171
*1145 EU/COMP/r71/U172
*1146 EU/COMP/r71/U173
*1147 EU/COMP/r71/U174
*1148 EU/COMP/r71/U175
*1149 EU/COMP/r71/U176
*1150 EU/COMP/r71/U177
*1151 EU/COMP/r71/U178
*1152 EU/COMP/r71/U179
*1153 EU/COMP/r71/U180
*1154 EU/COMP/r71/U181
*1155 EU/COMP/r71/U182
*1156 EU/COMP/r71/U183
*1157 EU/COMP/r71/U184
*1158 EU/COMP/r71/U185
*1159 EU/COMP/r71/U186
*1160 EU/COMP/r71/U187
*1161 EU/COMP/r71/U188
*1162 EU/COMP/r71/U189
*1163 EU/COMP/r71/U190
*1164 EU/COMP/r71/U191
*1165 EU/COMP/r71/U192
*1166 EU/COMP/r71/U193
*1167 EU/COMP/r71/U194
*1168 EU/COMP/r71/U195
*1169 EU/COMP/r71/U196
*1170 EU/COMP/r71/U197
*1171 EU/COMP/r71/U198
*1172 EU/COMP/r71/U199
*1173 EU/COMP/r71/U200
*1174 EU/COMP/r71/U201
*1175 EU/COMP/r71/U202
*1176 EU/COMP/r71/U203
*1177 EU/COMP/r71/U204
*1178 EU/COMP/r70/U19
*1179 EU/COMP/r70/U20
*1180 EU/COMP/r70/U21
*1181 EU/COMP/r70/U22
*1182 EU/COMP/r70/U24
*1183 EU/COMP/r70/U25
*1184 EU/COMP/r70/U26
*1185 EU/COMP/r70/U27
*1186 EU/COMP/r70/U30
*1187 EU/COMP/r70/U31
*1188 EU/COMP/r70/U32
*1189 EU/COMP/r70/U33
*1190 EU/COMP/r70/U35
*1191 EU/COMP/r70/U36
*1192 EU/COMP/r70/U37
*1193 EU/COMP/r70/U38
*1194 EU/COMP/r70/U40
*1195 EU/COMP/r70/U41
*1196 EU/COMP/r70/U42
*1197 EU/COMP/r70/U43
*1198 EU/COMP/r70/U45
*1199 EU/COMP/r70/U46
*1200 EU/COMP/r70/U47
*1201 EU/COMP/r70/U48
*1202 EU/COMP/r70/U1
*1203 EU/COMP/r70/U2
*1204 EU/COMP/r70/U3
*1205 EU/COMP/r70/U4
*1206 EU/COMP/r70/U5
*1207 EU/COMP/r70/U6
*1208 EU/COMP/r70/U7
*1209 EU/COMP/r70/U8
*1210 EU/COMP/r70/U9
*1211 EU/COMP/r70/U10
*1212 EU/COMP/r70/U11
*1213 EU/COMP/r70/U12
*1214 EU/COMP/r70/U13
*1215 EU/COMP/r70/U14
*1216 EU/COMP/r70/U15
*1217 EU/COMP/r70/U16
*1218 EU/COMP/r70/U17
*1219 EU/COMP/r70/U18
*1220 EU/COMP/r70/U23
*1221 EU/COMP/r70/U28
*1222 EU/COMP/r70/U29
*1223 EU/COMP/r70/U34
*1224 EU/COMP/r70/U39
*1225 EU/COMP/r70/U44
*1226 EU/COMP/U4
*1227 EU/COMP/U5
*1228 EU/COMP/U6
*1229 EU/COMP/U7
*1230 EU/COMP/U8
*1231 EU/COMP/U9
*1232 EU/COMP/U10
*1233 EU/COMP/U11
*1234 DU/HU/U8
*1235 DU/HU/U9
*1236 DU/HU/U10
*1237 DU/HU/U11
*1238 DU/HU/U12
*1239 DU/HU/U13
*1240 DU/HU/U14
*1241 DU/HU/U1
*1242 DU/HU/U2
*1243 DU/HU/U3
*1244 DU/HU/U4
*1245 DU/HU/U5
*1246 DU/HU/U6
*1247 DU/HU/U7
*1248 FU/PC/R_reg\[31\]
*1249 FU/PC/R_reg\[30\]
*1250 FU/PC/R_reg\[29\]
*1251 FU/PC/R_reg\[28\]
*1252 FU/PC/R_reg\[27\]
*1253 FU/PC/R_reg\[26\]
*1254 FU/PC/R_reg\[25\]
*1255 FU/PC/R_reg\[24\]
*1256 FU/PC/R_reg\[23\]
*1257 FU/PC/R_reg\[22\]
*1258 FU/PC/R_reg\[21\]
*1259 FU/PC/R_reg\[20\]
*1260 FU/PC/R_reg\[19\]
*1261 FU/PC/R_reg\[18\]
*1262 FU/PC/R_reg\[17\]
*1263 FU/PC/R_reg\[16\]
*1264 FU/PC/R_reg\[15\]
*1265 FU/PC/R_reg\[14\]
*1266 FU/PC/R_reg\[13\]
*1267 FU/PC/R_reg\[12\]
*1268 FU/PC/R_reg\[11\]
*1269 FU/PC/R_reg\[10\]
*1270 FU/PC/R_reg\[9\]
*1271 FU/PC/R_reg\[8\]
*1272 FU/PC/R_reg\[7\]
*1273 FU/PC/R_reg\[6\]
*1274 FU/PC/R_reg\[5\]
*1275 FU/PC/R_reg\[4\]
*1276 FU/PC/R_reg\[3\]
*1277 FU/PC/R_reg\[2\]
*1278 FU/PC/R_reg\[1\]
*1279 FU/PC/R_reg\[0\]
*1280 FU/PC/U9
*1281 FU/PC/U10
*1282 FU/PC/U11
*1283 FU/PC/U12
*1284 FU/PC/U13
*1285 FU/PC/U14
*1286 FU/PC/U15
*1287 FU/PC/U16
*1288 FU/PC/U17
*1289 FU/PC/U18
*1290 FU/PC/U19
*1291 FU/PC/U20
*1292 FU/PC/U21
*1293 FU/PC/U22
*1294 FU/PC/U23
*1295 FU/PC/U24
*1296 FU/PC/U25
*1297 FU/PC/U26
*1298 FU/PC/U27
*1299 FU/PC/U28
*1300 FU/PC/U29
*1301 FU/PC/U30
*1302 FU/PC/U31
*1303 FU/PC/U32
*1304 FU/PC/U33
*1305 FU/PC/U34
*1306 FU/PC/U35
*1307 FU/PC/U36
*1308 FU/PC/U37
*1309 FU/PC/U38
*1310 FU/PC/U39
*1311 FU/PC/U40
*1312 FU/PC/U41
*1313 FU/PC/U42
*1314 FU/PC/U43
*1315 FU/PC/U44
*1316 FU/PC/U45
*1317 FU/PC/U46
*1318 FU/PC/U47
*1319 FU/PC/U48
*1320 FU/PC/U49
*1321 FU/PC/U50
*1322 FU/PC/U51
*1323 FU/PC/U52
*1324 FU/PC/U53
*1325 FU/PC/U54
*1326 FU/PC/U55
*1327 FU/PC/U56
*1328 FU/PC/U57
*1329 FU/PC/U58
*1330 FU/PC/U59
*1331 FU/PC/U60
*1332 FU/PC/U61
*1333 FU/PC/U62
*1334 FU/PC/U63
*1335 FU/PC/U64
*1336 FU/PC/U65
*1337 FU/PC/U66
*1338 FU/PC/U67
*1339 FU/PC/U68
*1340 FU/PC/U69
*1341 FU/PC/U70
*1342 FU/PC/U71
*1343 FU/PC/U72
*1344 FU/PC/U73
*1345 FU/PC/U74
*1346 FU/PC/U75
*1347 FU/PC/U76
*1348 FU/PC/U77
*1349 FU/PC/U78
*1350 FU/IR/R_reg\[31\]
*1351 FU/IR/R_reg\[30\]
*1352 FU/IR/R_reg\[29\]
*1353 FU/IR/R_reg\[28\]
*1354 FU/IR/R_reg\[27\]
*1355 FU/IR/R_reg\[26\]
*1356 FU/IR/R_reg\[25\]
*1357 FU/IR/R_reg\[24\]
*1358 FU/IR/R_reg\[23\]
*1359 FU/IR/R_reg\[22\]
*1360 FU/IR/R_reg\[21\]
*1361 FU/IR/R_reg\[20\]
*1362 FU/IR/R_reg\[19\]
*1363 FU/IR/R_reg\[18\]
*1364 FU/IR/R_reg\[17\]
*1365 FU/IR/R_reg\[16\]
*1366 FU/IR/R_reg\[15\]
*1367 FU/IR/R_reg\[14\]
*1368 FU/IR/R_reg\[13\]
*1369 FU/IR/R_reg\[12\]
*1370 FU/IR/R_reg\[11\]
*1371 FU/IR/R_reg\[10\]
*1372 FU/IR/R_reg\[9\]
*1373 FU/IR/R_reg\[8\]
*1374 FU/IR/R_reg\[7\]
*1375 FU/IR/R_reg\[6\]
*1376 FU/IR/R_reg\[5\]
*1377 FU/IR/R_reg\[4\]
*1378 FU/IR/R_reg\[3\]
*1379 FU/IR/R_reg\[2\]
*1380 FU/IR/R_reg\[1\]
*1381 FU/IR/R_reg\[0\]
*1382 FU/IR/U9
*1383 FU/IR/U10
*1384 FU/IR/U11
*1385 FU/IR/U12
*1386 FU/IR/U13
*1387 FU/IR/U14
*1388 FU/IR/U15
*1389 FU/IR/U16